/*---------------------------------------------------------------------------*\
  =========                 |
  \\      /  F ield         | OpenFOAM: The Open Source CFD Toolbox
   \\    /   O peration     | Website:  https://openfoam.org
    \\  /    A nd           | Version:  8
     \\/     M anipulation  |
\*---------------------------------------------------------------------------*/
Build  : 8-1c9b5879390b
Exec   : foamToVTK -useTimeName -noZero -ascii -noPointValues -fields (delta_U delta_p U_non_cons p Cx Cy Cz delta_U_prev delta_p_prev) -excludePatches (inlet outlet defaultFaces)
Date   : Aug 26 2025
Time   : 09:01:52
Host   : "ubuntu"
PID    : 217375
I/O    : uncollated
Case   : /home/pasou/Desktop/DL_solvers/DLpisoFoam/train_SM/generate_data_3d/simulation_data_test/0
nProcs : 1
sigFpe : Enabling floating point exception trapping (FOAM_SIGFPE).
fileModificationChecking : Monitoring run-time modified files using timeStampMaster (fileModificationSkew 10)
allowSystemOperations : Allowing user-supplied system call operations

// * * * * * * * * * * * * * * * * * * * * * * * * * * * * * * * * * * * * * //
Create time

--> FOAM Warning : 
    From function int main(int, char**)
    in file foamToVTK.C at line 356
    Outputting cell values only

Not including patches 
3
(
inlet
outlet
defaultFaces
)


Create mesh for time = 0.7128

Time: 0.7128
    volScalarFields            : Cy delta_p Cz p Cx
    volVectorFields            : delta_U U_non_cons
    pointScalarFields : switched off ("-noPointValues" (at your option)
    pointVectorFields : switched off ("-noPointValues" (at your option)

    Internal  : "/home/pasou/Desktop/DL_solvers/DLpisoFoam/train_SM/generate_data_3d/simulation_data_test/0/VTK/0_0.7128.vtk"
    Original cells:706728 points:741088   Additional cells:0  additional points:0

    Patch     : "/home/pasou/Desktop/DL_solvers/DLpisoFoam/train_SM/generate_data_3d/simulation_data_test/0/VTK/geometry_z_top/geometry_z_top_0.7128.vtk"
    Patch     : "/home/pasou/Desktop/DL_solvers/DLpisoFoam/train_SM/generate_data_3d/simulation_data_test/0/VTK/geometry_z_bot/geometry_z_bot_0.7128.vtk"
    Patch     : "/home/pasou/Desktop/DL_solvers/DLpisoFoam/train_SM/generate_data_3d/simulation_data_test/0/VTK/geometry_y_bot/geometry_y_bot_0.7128.vtk"
    Patch     : "/home/pasou/Desktop/DL_solvers/DLpisoFoam/train_SM/generate_data_3d/simulation_data_test/0/VTK/geometry_inlet/geometry_inlet_0.7128.vtk"
    Patch     : "/home/pasou/Desktop/DL_solvers/DLpisoFoam/train_SM/generate_data_3d/simulation_data_test/0/VTK/geometry_y_top/geometry_y_top_0.7128.vtk"
    Patch     : "/home/pasou/Desktop/DL_solvers/DLpisoFoam/train_SM/generate_data_3d/simulation_data_test/0/VTK/geometry_outlet/geometry_outlet_0.7128.vtk"
    Patch     : "/home/pasou/Desktop/DL_solvers/DLpisoFoam/train_SM/generate_data_3d/simulation_data_test/0/VTK/geometry_obstacle/geometry_obstacle_0.7128.vtk"
Time: 1.4292
    volScalarFields            : Cy delta_p Cz p Cx
    volVectorFields            : delta_U U_non_cons
    pointScalarFields : switched off ("-noPointValues" (at your option)
    pointVectorFields : switched off ("-noPointValues" (at your option)

    Internal  : "/home/pasou/Desktop/DL_solvers/DLpisoFoam/train_SM/generate_data_3d/simulation_data_test/0/VTK/0_1.4292.vtk"
    Patch     : "/home/pasou/Desktop/DL_solvers/DLpisoFoam/train_SM/generate_data_3d/simulation_data_test/0/VTK/geometry_z_top/geometry_z_top_1.4292.vtk"
    Patch     : "/home/pasou/Desktop/DL_solvers/DLpisoFoam/train_SM/generate_data_3d/simulation_data_test/0/VTK/geometry_z_bot/geometry_z_bot_1.4292.vtk"
    Patch     : "/home/pasou/Desktop/DL_solvers/DLpisoFoam/train_SM/generate_data_3d/simulation_data_test/0/VTK/geometry_y_bot/geometry_y_bot_1.4292.vtk"
    Patch     : "/home/pasou/Desktop/DL_solvers/DLpisoFoam/train_SM/generate_data_3d/simulation_data_test/0/VTK/geometry_inlet/geometry_inlet_1.4292.vtk"
    Patch     : "/home/pasou/Desktop/DL_solvers/DLpisoFoam/train_SM/generate_data_3d/simulation_data_test/0/VTK/geometry_y_top/geometry_y_top_1.4292.vtk"
    Patch     : "/home/pasou/Desktop/DL_solvers/DLpisoFoam/train_SM/generate_data_3d/simulation_data_test/0/VTK/geometry_outlet/geometry_outlet_1.4292.vtk"
    Patch     : "/home/pasou/Desktop/DL_solvers/DLpisoFoam/train_SM/generate_data_3d/simulation_data_test/0/VTK/geometry_obstacle/geometry_obstacle_1.4292.vtk"
Time: 2.142
    volScalarFields            : Cy delta_p Cz p Cx
    volVectorFields            : delta_U U_non_cons
    pointScalarFields : switched off ("-noPointValues" (at your option)
    pointVectorFields : switched off ("-noPointValues" (at your option)

    Internal  : "/home/pasou/Desktop/DL_solvers/DLpisoFoam/train_SM/generate_data_3d/simulation_data_test/0/VTK/0_2.142.vtk"
    Patch     : "/home/pasou/Desktop/DL_solvers/DLpisoFoam/train_SM/generate_data_3d/simulation_data_test/0/VTK/geometry_z_top/geometry_z_top_2.142.vtk"
    Patch     : "/home/pasou/Desktop/DL_solvers/DLpisoFoam/train_SM/generate_data_3d/simulation_data_test/0/VTK/geometry_z_bot/geometry_z_bot_2.142.vtk"
    Patch     : "/home/pasou/Desktop/DL_solvers/DLpisoFoam/train_SM/generate_data_3d/simulation_data_test/0/VTK/geometry_y_bot/geometry_y_bot_2.142.vtk"
    Patch     : "/home/pasou/Desktop/DL_solvers/DLpisoFoam/train_SM/generate_data_3d/simulation_data_test/0/VTK/geometry_inlet/geometry_inlet_2.142.vtk"
    Patch     : "/home/pasou/Desktop/DL_solvers/DLpisoFoam/train_SM/generate_data_3d/simulation_data_test/0/VTK/geometry_y_top/geometry_y_top_2.142.vtk"
    Patch     : "/home/pasou/Desktop/DL_solvers/DLpisoFoam/train_SM/generate_data_3d/simulation_data_test/0/VTK/geometry_outlet/geometry_outlet_2.142.vtk"
    Patch     : "/home/pasou/Desktop/DL_solvers/DLpisoFoam/train_SM/generate_data_3d/simulation_data_test/0/VTK/geometry_obstacle/geometry_obstacle_2.142.vtk"
Time: 2.8584
    volScalarFields            : Cy delta_p Cz p Cx
    volVectorFields            : delta_U U_non_cons
    pointScalarFields : switched off ("-noPointValues" (at your option)
    pointVectorFields : switched off ("-noPointValues" (at your option)

    Internal  : "/home/pasou/Desktop/DL_solvers/DLpisoFoam/train_SM/generate_data_3d/simulation_data_test/0/VTK/0_2.8584.vtk"
    Patch     : "/home/pasou/Desktop/DL_solvers/DLpisoFoam/train_SM/generate_data_3d/simulation_data_test/0/VTK/geometry_z_top/geometry_z_top_2.8584.vtk"
    Patch     : "/home/pasou/Desktop/DL_solvers/DLpisoFoam/train_SM/generate_data_3d/simulation_data_test/0/VTK/geometry_z_bot/geometry_z_bot_2.8584.vtk"
    Patch     : "/home/pasou/Desktop/DL_solvers/DLpisoFoam/train_SM/generate_data_3d/simulation_data_test/0/VTK/geometry_y_bot/geometry_y_bot_2.8584.vtk"
    Patch     : "/home/pasou/Desktop/DL_solvers/DLpisoFoam/train_SM/generate_data_3d/simulation_data_test/0/VTK/geometry_inlet/geometry_inlet_2.8584.vtk"
    Patch     : "/home/pasou/Desktop/DL_solvers/DLpisoFoam/train_SM/generate_data_3d/simulation_data_test/0/VTK/geometry_y_top/geometry_y_top_2.8584.vtk"
    Patch     : "/home/pasou/Desktop/DL_solvers/DLpisoFoam/train_SM/generate_data_3d/simulation_data_test/0/VTK/geometry_outlet/geometry_outlet_2.8584.vtk"
    Patch     : "/home/pasou/Desktop/DL_solvers/DLpisoFoam/train_SM/generate_data_3d/simulation_data_test/0/VTK/geometry_obstacle/geometry_obstacle_2.8584.vtk"
Time: 3.5712
    volScalarFields            : Cy delta_p Cz p Cx
    volVectorFields            : delta_U U_non_cons
    pointScalarFields : switched off ("-noPointValues" (at your option)
    pointVectorFields : switched off ("-noPointValues" (at your option)

    Internal  : "/home/pasou/Desktop/DL_solvers/DLpisoFoam/train_SM/generate_data_3d/simulation_data_test/0/VTK/0_3.5712.vtk"
    Patch     : "/home/pasou/Desktop/DL_solvers/DLpisoFoam/train_SM/generate_data_3d/simulation_data_test/0/VTK/geometry_z_top/geometry_z_top_3.5712.vtk"
    Patch     : "/home/pasou/Desktop/DL_solvers/DLpisoFoam/train_SM/generate_data_3d/simulation_data_test/0/VTK/geometry_z_bot/geometry_z_bot_3.5712.vtk"
    Patch     : "/home/pasou/Desktop/DL_solvers/DLpisoFoam/train_SM/generate_data_3d/simulation_data_test/0/VTK/geometry_y_bot/geometry_y_bot_3.5712.vtk"
    Patch     : "/home/pasou/Desktop/DL_solvers/DLpisoFoam/train_SM/generate_data_3d/simulation_data_test/0/VTK/geometry_inlet/geometry_inlet_3.5712.vtk"
    Patch     : "/home/pasou/Desktop/DL_solvers/DLpisoFoam/train_SM/generate_data_3d/simulation_data_test/0/VTK/geometry_y_top/geometry_y_top_3.5712.vtk"
    Patch     : "/home/pasou/Desktop/DL_solvers/DLpisoFoam/train_SM/generate_data_3d/simulation_data_test/0/VTK/geometry_outlet/geometry_outlet_3.5712.vtk"
    Patch     : "/home/pasou/Desktop/DL_solvers/DLpisoFoam/train_SM/generate_data_3d/simulation_data_test/0/VTK/geometry_obstacle/geometry_obstacle_3.5712.vtk"
Time: 4.284
    volScalarFields            : Cy delta_p Cz p Cx
    volVectorFields            : delta_U U_non_cons
    pointScalarFields : switched off ("-noPointValues" (at your option)
    pointVectorFields : switched off ("-noPointValues" (at your option)

    Internal  : "/home/pasou/Desktop/DL_solvers/DLpisoFoam/train_SM/generate_data_3d/simulation_data_test/0/VTK/0_4.284.vtk"
    Patch     : "/home/pasou/Desktop/DL_solvers/DLpisoFoam/train_SM/generate_data_3d/simulation_data_test/0/VTK/geometry_z_top/geometry_z_top_4.284.vtk"
    Patch     : "/home/pasou/Desktop/DL_solvers/DLpisoFoam/train_SM/generate_data_3d/simulation_data_test/0/VTK/geometry_z_bot/geometry_z_bot_4.284.vtk"
    Patch     : "/home/pasou/Desktop/DL_solvers/DLpisoFoam/train_SM/generate_data_3d/simulation_data_test/0/VTK/geometry_y_bot/geometry_y_bot_4.284.vtk"
    Patch     : "/home/pasou/Desktop/DL_solvers/DLpisoFoam/train_SM/generate_data_3d/simulation_data_test/0/VTK/geometry_inlet/geometry_inlet_4.284.vtk"
    Patch     : "/home/pasou/Desktop/DL_solvers/DLpisoFoam/train_SM/generate_data_3d/simulation_data_test/0/VTK/geometry_y_top/geometry_y_top_4.284.vtk"
    Patch     : "/home/pasou/Desktop/DL_solvers/DLpisoFoam/train_SM/generate_data_3d/simulation_data_test/0/VTK/geometry_outlet/geometry_outlet_4.284.vtk"
    Patch     : "/home/pasou/Desktop/DL_solvers/DLpisoFoam/train_SM/generate_data_3d/simulation_data_test/0/VTK/geometry_obstacle/geometry_obstacle_4.284.vtk"
Time: 5.0004
    volScalarFields            : Cy delta_p Cz p Cx
    volVectorFields            : delta_U U_non_cons
    pointScalarFields : switched off ("-noPointValues" (at your option)
    pointVectorFields : switched off ("-noPointValues" (at your option)

    Internal  : "/home/pasou/Desktop/DL_solvers/DLpisoFoam/train_SM/generate_data_3d/simulation_data_test/0/VTK/0_5.0004.vtk"
    Patch     : "/home/pasou/Desktop/DL_solvers/DLpisoFoam/train_SM/generate_data_3d/simulation_data_test/0/VTK/geometry_z_top/geometry_z_top_5.0004.vtk"
    Patch     : "/home/pasou/Desktop/DL_solvers/DLpisoFoam/train_SM/generate_data_3d/simulation_data_test/0/VTK/geometry_z_bot/geometry_z_bot_5.0004.vtk"
    Patch     : "/home/pasou/Desktop/DL_solvers/DLpisoFoam/train_SM/generate_data_3d/simulation_data_test/0/VTK/geometry_y_bot/geometry_y_bot_5.0004.vtk"
    Patch     : "/home/pasou/Desktop/DL_solvers/DLpisoFoam/train_SM/generate_data_3d/simulation_data_test/0/VTK/geometry_inlet/geometry_inlet_5.0004.vtk"
    Patch     : "/home/pasou/Desktop/DL_solvers/DLpisoFoam/train_SM/generate_data_3d/simulation_data_test/0/VTK/geometry_y_top/geometry_y_top_5.0004.vtk"
    Patch     : "/home/pasou/Desktop/DL_solvers/DLpisoFoam/train_SM/generate_data_3d/simulation_data_test/0/VTK/geometry_outlet/geometry_outlet_5.0004.vtk"
    Patch     : "/home/pasou/Desktop/DL_solvers/DLpisoFoam/train_SM/generate_data_3d/simulation_data_test/0/VTK/geometry_obstacle/geometry_obstacle_5.0004.vtk"
Time: 5.7132
    volScalarFields            : Cy delta_p Cz p Cx
    volVectorFields            : delta_U U_non_cons
    pointScalarFields : switched off ("-noPointValues" (at your option)
    pointVectorFields : switched off ("-noPointValues" (at your option)

    Internal  : "/home/pasou/Desktop/DL_solvers/DLpisoFoam/train_SM/generate_data_3d/simulation_data_test/0/VTK/0_5.7132.vtk"
    Patch     : "/home/pasou/Desktop/DL_solvers/DLpisoFoam/train_SM/generate_data_3d/simulation_data_test/0/VTK/geometry_z_top/geometry_z_top_5.7132.vtk"
    Patch     : "/home/pasou/Desktop/DL_solvers/DLpisoFoam/train_SM/generate_data_3d/simulation_data_test/0/VTK/geometry_z_bot/geometry_z_bot_5.7132.vtk"
    Patch     : "/home/pasou/Desktop/DL_solvers/DLpisoFoam/train_SM/generate_data_3d/simulation_data_test/0/VTK/geometry_y_bot/geometry_y_bot_5.7132.vtk"
    Patch     : "/home/pasou/Desktop/DL_solvers/DLpisoFoam/train_SM/generate_data_3d/simulation_data_test/0/VTK/geometry_inlet/geometry_inlet_5.7132.vtk"
    Patch     : "/home/pasou/Desktop/DL_solvers/DLpisoFoam/train_SM/generate_data_3d/simulation_data_test/0/VTK/geometry_y_top/geometry_y_top_5.7132.vtk"
    Patch     : "/home/pasou/Desktop/DL_solvers/DLpisoFoam/train_SM/generate_data_3d/simulation_data_test/0/VTK/geometry_outlet/geometry_outlet_5.7132.vtk"
    Patch     : "/home/pasou/Desktop/DL_solvers/DLpisoFoam/train_SM/generate_data_3d/simulation_data_test/0/VTK/geometry_obstacle/geometry_obstacle_5.7132.vtk"
Time: 6.4296
    volScalarFields            : Cy delta_p Cz p Cx
    volVectorFields            : delta_U U_non_cons
    pointScalarFields : switched off ("-noPointValues" (at your option)
    pointVectorFields : switched off ("-noPointValues" (at your option)

    Internal  : "/home/pasou/Desktop/DL_solvers/DLpisoFoam/train_SM/generate_data_3d/simulation_data_test/0/VTK/0_6.4296.vtk"
    Patch     : "/home/pasou/Desktop/DL_solvers/DLpisoFoam/train_SM/generate_data_3d/simulation_data_test/0/VTK/geometry_z_top/geometry_z_top_6.4296.vtk"
    Patch     : "/home/pasou/Desktop/DL_solvers/DLpisoFoam/train_SM/generate_data_3d/simulation_data_test/0/VTK/geometry_z_bot/geometry_z_bot_6.4296.vtk"
    Patch     : "/home/pasou/Desktop/DL_solvers/DLpisoFoam/train_SM/generate_data_3d/simulation_data_test/0/VTK/geometry_y_bot/geometry_y_bot_6.4296.vtk"
    Patch     : "/home/pasou/Desktop/DL_solvers/DLpisoFoam/train_SM/generate_data_3d/simulation_data_test/0/VTK/geometry_inlet/geometry_inlet_6.4296.vtk"
    Patch     : "/home/pasou/Desktop/DL_solvers/DLpisoFoam/train_SM/generate_data_3d/simulation_data_test/0/VTK/geometry_y_top/geometry_y_top_6.4296.vtk"
    Patch     : "/home/pasou/Desktop/DL_solvers/DLpisoFoam/train_SM/generate_data_3d/simulation_data_test/0/VTK/geometry_outlet/geometry_outlet_6.4296.vtk"
    Patch     : "/home/pasou/Desktop/DL_solvers/DLpisoFoam/train_SM/generate_data_3d/simulation_data_test/0/VTK/geometry_obstacle/geometry_obstacle_6.4296.vtk"
Time: 7.1424
    volScalarFields            : Cy delta_p Cz p Cx
    volVectorFields            : delta_U U_non_cons
    pointScalarFields : switched off ("-noPointValues" (at your option)
    pointVectorFields : switched off ("-noPointValues" (at your option)

    Internal  : "/home/pasou/Desktop/DL_solvers/DLpisoFoam/train_SM/generate_data_3d/simulation_data_test/0/VTK/0_7.1424.vtk"
    Patch     : "/home/pasou/Desktop/DL_solvers/DLpisoFoam/train_SM/generate_data_3d/simulation_data_test/0/VTK/geometry_z_top/geometry_z_top_7.1424.vtk"
    Patch     : "/home/pasou/Desktop/DL_solvers/DLpisoFoam/train_SM/generate_data_3d/simulation_data_test/0/VTK/geometry_z_bot/geometry_z_bot_7.1424.vtk"
    Patch     : "/home/pasou/Desktop/DL_solvers/DLpisoFoam/train_SM/generate_data_3d/simulation_data_test/0/VTK/geometry_y_bot/geometry_y_bot_7.1424.vtk"
    Patch     : "/home/pasou/Desktop/DL_solvers/DLpisoFoam/train_SM/generate_data_3d/simulation_data_test/0/VTK/geometry_inlet/geometry_inlet_7.1424.vtk"
    Patch     : "/home/pasou/Desktop/DL_solvers/DLpisoFoam/train_SM/generate_data_3d/simulation_data_test/0/VTK/geometry_y_top/geometry_y_top_7.1424.vtk"
    Patch     : "/home/pasou/Desktop/DL_solvers/DLpisoFoam/train_SM/generate_data_3d/simulation_data_test/0/VTK/geometry_outlet/geometry_outlet_7.1424.vtk"
    Patch     : "/home/pasou/Desktop/DL_solvers/DLpisoFoam/train_SM/generate_data_3d/simulation_data_test/0/VTK/geometry_obstacle/geometry_obstacle_7.1424.vtk"
Time: 7.8588
    volScalarFields            : Cy delta_p Cz p Cx
    volVectorFields            : delta_U U_non_cons
    pointScalarFields : switched off ("-noPointValues" (at your option)
    pointVectorFields : switched off ("-noPointValues" (at your option)

    Internal  : "/home/pasou/Desktop/DL_solvers/DLpisoFoam/train_SM/generate_data_3d/simulation_data_test/0/VTK/0_7.8588.vtk"
    Patch     : "/home/pasou/Desktop/DL_solvers/DLpisoFoam/train_SM/generate_data_3d/simulation_data_test/0/VTK/geometry_z_top/geometry_z_top_7.8588.vtk"
    Patch     : "/home/pasou/Desktop/DL_solvers/DLpisoFoam/train_SM/generate_data_3d/simulation_data_test/0/VTK/geometry_z_bot/geometry_z_bot_7.8588.vtk"
    Patch     : "/home/pasou/Desktop/DL_solvers/DLpisoFoam/train_SM/generate_data_3d/simulation_data_test/0/VTK/geometry_y_bot/geometry_y_bot_7.8588.vtk"
    Patch     : "/home/pasou/Desktop/DL_solvers/DLpisoFoam/train_SM/generate_data_3d/simulation_data_test/0/VTK/geometry_inlet/geometry_inlet_7.8588.vtk"
    Patch     : "/home/pasou/Desktop/DL_solvers/DLpisoFoam/train_SM/generate_data_3d/simulation_data_test/0/VTK/geometry_y_top/geometry_y_top_7.8588.vtk"
    Patch     : "/home/pasou/Desktop/DL_solvers/DLpisoFoam/train_SM/generate_data_3d/simulation_data_test/0/VTK/geometry_outlet/geometry_outlet_7.8588.vtk"
    Patch     : "/home/pasou/Desktop/DL_solvers/DLpisoFoam/train_SM/generate_data_3d/simulation_data_test/0/VTK/geometry_obstacle/geometry_obstacle_7.8588.vtk"
Time: 8.5716
    volScalarFields            : Cy delta_p Cz p Cx
    volVectorFields            : delta_U U_non_cons
    pointScalarFields : switched off ("-noPointValues" (at your option)
    pointVectorFields : switched off ("-noPointValues" (at your option)

    Internal  : "/home/pasou/Desktop/DL_solvers/DLpisoFoam/train_SM/generate_data_3d/simulation_data_test/0/VTK/0_8.5716.vtk"
    Patch     : "/home/pasou/Desktop/DL_solvers/DLpisoFoam/train_SM/generate_data_3d/simulation_data_test/0/VTK/geometry_z_top/geometry_z_top_8.5716.vtk"
    Patch     : "/home/pasou/Desktop/DL_solvers/DLpisoFoam/train_SM/generate_data_3d/simulation_data_test/0/VTK/geometry_z_bot/geometry_z_bot_8.5716.vtk"
    Patch     : "/home/pasou/Desktop/DL_solvers/DLpisoFoam/train_SM/generate_data_3d/simulation_data_test/0/VTK/geometry_y_bot/geometry_y_bot_8.5716.vtk"
    Patch     : "/home/pasou/Desktop/DL_solvers/DLpisoFoam/train_SM/generate_data_3d/simulation_data_test/0/VTK/geometry_inlet/geometry_inlet_8.5716.vtk"
    Patch     : "/home/pasou/Desktop/DL_solvers/DLpisoFoam/train_SM/generate_data_3d/simulation_data_test/0/VTK/geometry_y_top/geometry_y_top_8.5716.vtk"
    Patch     : "/home/pasou/Desktop/DL_solvers/DLpisoFoam/train_SM/generate_data_3d/simulation_data_test/0/VTK/geometry_outlet/geometry_outlet_8.5716.vtk"
    Patch     : "/home/pasou/Desktop/DL_solvers/DLpisoFoam/train_SM/generate_data_3d/simulation_data_test/0/VTK/geometry_obstacle/geometry_obstacle_8.5716.vtk"
Time: 9.2844
    volScalarFields            : Cy delta_p Cz p Cx
    volVectorFields            : delta_U U_non_cons
    pointScalarFields : switched off ("-noPointValues" (at your option)
    pointVectorFields : switched off ("-noPointValues" (at your option)

    Internal  : "/home/pasou/Desktop/DL_solvers/DLpisoFoam/train_SM/generate_data_3d/simulation_data_test/0/VTK/0_9.2844.vtk"
    Patch     : "/home/pasou/Desktop/DL_solvers/DLpisoFoam/train_SM/generate_data_3d/simulation_data_test/0/VTK/geometry_z_top/geometry_z_top_9.2844.vtk"
    Patch     : "/home/pasou/Desktop/DL_solvers/DLpisoFoam/train_SM/generate_data_3d/simulation_data_test/0/VTK/geometry_z_bot/geometry_z_bot_9.2844.vtk"
    Patch     : "/home/pasou/Desktop/DL_solvers/DLpisoFoam/train_SM/generate_data_3d/simulation_data_test/0/VTK/geometry_y_bot/geometry_y_bot_9.2844.vtk"
    Patch     : "/home/pasou/Desktop/DL_solvers/DLpisoFoam/train_SM/generate_data_3d/simulation_data_test/0/VTK/geometry_inlet/geometry_inlet_9.2844.vtk"
    Patch     : "/home/pasou/Desktop/DL_solvers/DLpisoFoam/train_SM/generate_data_3d/simulation_data_test/0/VTK/geometry_y_top/geometry_y_top_9.2844.vtk"
    Patch     : "/home/pasou/Desktop/DL_solvers/DLpisoFoam/train_SM/generate_data_3d/simulation_data_test/0/VTK/geometry_outlet/geometry_outlet_9.2844.vtk"
    Patch     : "/home/pasou/Desktop/DL_solvers/DLpisoFoam/train_SM/generate_data_3d/simulation_data_test/0/VTK/geometry_obstacle/geometry_obstacle_9.2844.vtk"
Time: 10.0008
    volScalarFields            : Cy delta_p Cz p Cx
    volVectorFields            : delta_U U_non_cons
    pointScalarFields : switched off ("-noPointValues" (at your option)
    pointVectorFields : switched off ("-noPointValues" (at your option)

    Internal  : "/home/pasou/Desktop/DL_solvers/DLpisoFoam/train_SM/generate_data_3d/simulation_data_test/0/VTK/0_10.0008.vtk"
    Patch     : "/home/pasou/Desktop/DL_solvers/DLpisoFoam/train_SM/generate_data_3d/simulation_data_test/0/VTK/geometry_z_top/geometry_z_top_10.0008.vtk"
    Patch     : "/home/pasou/Desktop/DL_solvers/DLpisoFoam/train_SM/generate_data_3d/simulation_data_test/0/VTK/geometry_z_bot/geometry_z_bot_10.0008.vtk"
    Patch     : "/home/pasou/Desktop/DL_solvers/DLpisoFoam/train_SM/generate_data_3d/simulation_data_test/0/VTK/geometry_y_bot/geometry_y_bot_10.0008.vtk"
    Patch     : "/home/pasou/Desktop/DL_solvers/DLpisoFoam/train_SM/generate_data_3d/simulation_data_test/0/VTK/geometry_inlet/geometry_inlet_10.0008.vtk"
    Patch     : "/home/pasou/Desktop/DL_solvers/DLpisoFoam/train_SM/generate_data_3d/simulation_data_test/0/VTK/geometry_y_top/geometry_y_top_10.0008.vtk"
    Patch     : "/home/pasou/Desktop/DL_solvers/DLpisoFoam/train_SM/generate_data_3d/simulation_data_test/0/VTK/geometry_outlet/geometry_outlet_10.0008.vtk"
    Patch     : "/home/pasou/Desktop/DL_solvers/DLpisoFoam/train_SM/generate_data_3d/simulation_data_test/0/VTK/geometry_obstacle/geometry_obstacle_10.0008.vtk"
Time: 10.7136
    volScalarFields            : Cy delta_p Cz p Cx
    volVectorFields            : delta_U U_non_cons
    pointScalarFields : switched off ("-noPointValues" (at your option)
    pointVectorFields : switched off ("-noPointValues" (at your option)

    Internal  : "/home/pasou/Desktop/DL_solvers/DLpisoFoam/train_SM/generate_data_3d/simulation_data_test/0/VTK/0_10.7136.vtk"
    Patch     : "/home/pasou/Desktop/DL_solvers/DLpisoFoam/train_SM/generate_data_3d/simulation_data_test/0/VTK/geometry_z_top/geometry_z_top_10.7136.vtk"
    Patch     : "/home/pasou/Desktop/DL_solvers/DLpisoFoam/train_SM/generate_data_3d/simulation_data_test/0/VTK/geometry_z_bot/geometry_z_bot_10.7136.vtk"
    Patch     : "/home/pasou/Desktop/DL_solvers/DLpisoFoam/train_SM/generate_data_3d/simulation_data_test/0/VTK/geometry_y_bot/geometry_y_bot_10.7136.vtk"
    Patch     : "/home/pasou/Desktop/DL_solvers/DLpisoFoam/train_SM/generate_data_3d/simulation_data_test/0/VTK/geometry_inlet/geometry_inlet_10.7136.vtk"
    Patch     : "/home/pasou/Desktop/DL_solvers/DLpisoFoam/train_SM/generate_data_3d/simulation_data_test/0/VTK/geometry_y_top/geometry_y_top_10.7136.vtk"
    Patch     : "/home/pasou/Desktop/DL_solvers/DLpisoFoam/train_SM/generate_data_3d/simulation_data_test/0/VTK/geometry_outlet/geometry_outlet_10.7136.vtk"
    Patch     : "/home/pasou/Desktop/DL_solvers/DLpisoFoam/train_SM/generate_data_3d/simulation_data_test/0/VTK/geometry_obstacle/geometry_obstacle_10.7136.vtk"
Time: 11.43
    volScalarFields            : Cy delta_p Cz p Cx
    volVectorFields            : delta_U U_non_cons
    pointScalarFields : switched off ("-noPointValues" (at your option)
    pointVectorFields : switched off ("-noPointValues" (at your option)

    Internal  : "/home/pasou/Desktop/DL_solvers/DLpisoFoam/train_SM/generate_data_3d/simulation_data_test/0/VTK/0_11.43.vtk"
    Patch     : "/home/pasou/Desktop/DL_solvers/DLpisoFoam/train_SM/generate_data_3d/simulation_data_test/0/VTK/geometry_z_top/geometry_z_top_11.43.vtk"
    Patch     : "/home/pasou/Desktop/DL_solvers/DLpisoFoam/train_SM/generate_data_3d/simulation_data_test/0/VTK/geometry_z_bot/geometry_z_bot_11.43.vtk"
    Patch     : "/home/pasou/Desktop/DL_solvers/DLpisoFoam/train_SM/generate_data_3d/simulation_data_test/0/VTK/geometry_y_bot/geometry_y_bot_11.43.vtk"
    Patch     : "/home/pasou/Desktop/DL_solvers/DLpisoFoam/train_SM/generate_data_3d/simulation_data_test/0/VTK/geometry_inlet/geometry_inlet_11.43.vtk"
    Patch     : "/home/pasou/Desktop/DL_solvers/DLpisoFoam/train_SM/generate_data_3d/simulation_data_test/0/VTK/geometry_y_top/geometry_y_top_11.43.vtk"
    Patch     : "/home/pasou/Desktop/DL_solvers/DLpisoFoam/train_SM/generate_data_3d/simulation_data_test/0/VTK/geometry_outlet/geometry_outlet_11.43.vtk"
    Patch     : "/home/pasou/Desktop/DL_solvers/DLpisoFoam/train_SM/generate_data_3d/simulation_data_test/0/VTK/geometry_obstacle/geometry_obstacle_11.43.vtk"
Time: 12.1428
    volScalarFields            : Cy delta_p Cz p Cx
    volVectorFields            : delta_U U_non_cons
    pointScalarFields : switched off ("-noPointValues" (at your option)
    pointVectorFields : switched off ("-noPointValues" (at your option)

    Internal  : "/home/pasou/Desktop/DL_solvers/DLpisoFoam/train_SM/generate_data_3d/simulation_data_test/0/VTK/0_12.1428.vtk"
    Patch     : "/home/pasou/Desktop/DL_solvers/DLpisoFoam/train_SM/generate_data_3d/simulation_data_test/0/VTK/geometry_z_top/geometry_z_top_12.1428.vtk"
    Patch     : "/home/pasou/Desktop/DL_solvers/DLpisoFoam/train_SM/generate_data_3d/simulation_data_test/0/VTK/geometry_z_bot/geometry_z_bot_12.1428.vtk"
    Patch     : "/home/pasou/Desktop/DL_solvers/DLpisoFoam/train_SM/generate_data_3d/simulation_data_test/0/VTK/geometry_y_bot/geometry_y_bot_12.1428.vtk"
    Patch     : "/home/pasou/Desktop/DL_solvers/DLpisoFoam/train_SM/generate_data_3d/simulation_data_test/0/VTK/geometry_inlet/geometry_inlet_12.1428.vtk"
    Patch     : "/home/pasou/Desktop/DL_solvers/DLpisoFoam/train_SM/generate_data_3d/simulation_data_test/0/VTK/geometry_y_top/geometry_y_top_12.1428.vtk"
    Patch     : "/home/pasou/Desktop/DL_solvers/DLpisoFoam/train_SM/generate_data_3d/simulation_data_test/0/VTK/geometry_outlet/geometry_outlet_12.1428.vtk"
    Patch     : "/home/pasou/Desktop/DL_solvers/DLpisoFoam/train_SM/generate_data_3d/simulation_data_test/0/VTK/geometry_obstacle/geometry_obstacle_12.1428.vtk"
Time: 12.8556
    volScalarFields            : Cy delta_p Cz p Cx
    volVectorFields            : delta_U U_non_cons
    pointScalarFields : switched off ("-noPointValues" (at your option)
    pointVectorFields : switched off ("-noPointValues" (at your option)

    Internal  : "/home/pasou/Desktop/DL_solvers/DLpisoFoam/train_SM/generate_data_3d/simulation_data_test/0/VTK/0_12.8556.vtk"
    Patch     : "/home/pasou/Desktop/DL_solvers/DLpisoFoam/train_SM/generate_data_3d/simulation_data_test/0/VTK/geometry_z_top/geometry_z_top_12.8556.vtk"
    Patch     : "/home/pasou/Desktop/DL_solvers/DLpisoFoam/train_SM/generate_data_3d/simulation_data_test/0/VTK/geometry_z_bot/geometry_z_bot_12.8556.vtk"
    Patch     : "/home/pasou/Desktop/DL_solvers/DLpisoFoam/train_SM/generate_data_3d/simulation_data_test/0/VTK/geometry_y_bot/geometry_y_bot_12.8556.vtk"
    Patch     : "/home/pasou/Desktop/DL_solvers/DLpisoFoam/train_SM/generate_data_3d/simulation_data_test/0/VTK/geometry_inlet/geometry_inlet_12.8556.vtk"
    Patch     : "/home/pasou/Desktop/DL_solvers/DLpisoFoam/train_SM/generate_data_3d/simulation_data_test/0/VTK/geometry_y_top/geometry_y_top_12.8556.vtk"
    Patch     : "/home/pasou/Desktop/DL_solvers/DLpisoFoam/train_SM/generate_data_3d/simulation_data_test/0/VTK/geometry_outlet/geometry_outlet_12.8556.vtk"
    Patch     : "/home/pasou/Desktop/DL_solvers/DLpisoFoam/train_SM/generate_data_3d/simulation_data_test/0/VTK/geometry_obstacle/geometry_obstacle_12.8556.vtk"
Time: 13.572
    volScalarFields            : Cy delta_p Cz p Cx
    volVectorFields            : delta_U U_non_cons
    pointScalarFields : switched off ("-noPointValues" (at your option)
    pointVectorFields : switched off ("-noPointValues" (at your option)

    Internal  : "/home/pasou/Desktop/DL_solvers/DLpisoFoam/train_SM/generate_data_3d/simulation_data_test/0/VTK/0_13.572.vtk"
    Patch     : "/home/pasou/Desktop/DL_solvers/DLpisoFoam/train_SM/generate_data_3d/simulation_data_test/0/VTK/geometry_z_top/geometry_z_top_13.572.vtk"
    Patch     : "/home/pasou/Desktop/DL_solvers/DLpisoFoam/train_SM/generate_data_3d/simulation_data_test/0/VTK/geometry_z_bot/geometry_z_bot_13.572.vtk"
    Patch     : "/home/pasou/Desktop/DL_solvers/DLpisoFoam/train_SM/generate_data_3d/simulation_data_test/0/VTK/geometry_y_bot/geometry_y_bot_13.572.vtk"
    Patch     : "/home/pasou/Desktop/DL_solvers/DLpisoFoam/train_SM/generate_data_3d/simulation_data_test/0/VTK/geometry_inlet/geometry_inlet_13.572.vtk"
    Patch     : "/home/pasou/Desktop/DL_solvers/DLpisoFoam/train_SM/generate_data_3d/simulation_data_test/0/VTK/geometry_y_top/geometry_y_top_13.572.vtk"
    Patch     : "/home/pasou/Desktop/DL_solvers/DLpisoFoam/train_SM/generate_data_3d/simulation_data_test/0/VTK/geometry_outlet/geometry_outlet_13.572.vtk"
    Patch     : "/home/pasou/Desktop/DL_solvers/DLpisoFoam/train_SM/generate_data_3d/simulation_data_test/0/VTK/geometry_obstacle/geometry_obstacle_13.572.vtk"
Time: 14.2848
    volScalarFields            : Cy delta_p Cz p Cx
    volVectorFields            : delta_U U_non_cons
    pointScalarFields : switched off ("-noPointValues" (at your option)
    pointVectorFields : switched off ("-noPointValues" (at your option)

    Internal  : "/home/pasou/Desktop/DL_solvers/DLpisoFoam/train_SM/generate_data_3d/simulation_data_test/0/VTK/0_14.2848.vtk"
    Patch     : "/home/pasou/Desktop/DL_solvers/DLpisoFoam/train_SM/generate_data_3d/simulation_data_test/0/VTK/geometry_z_top/geometry_z_top_14.2848.vtk"
    Patch     : "/home/pasou/Desktop/DL_solvers/DLpisoFoam/train_SM/generate_data_3d/simulation_data_test/0/VTK/geometry_z_bot/geometry_z_bot_14.2848.vtk"
    Patch     : "/home/pasou/Desktop/DL_solvers/DLpisoFoam/train_SM/generate_data_3d/simulation_data_test/0/VTK/geometry_y_bot/geometry_y_bot_14.2848.vtk"
    Patch     : "/home/pasou/Desktop/DL_solvers/DLpisoFoam/train_SM/generate_data_3d/simulation_data_test/0/VTK/geometry_inlet/geometry_inlet_14.2848.vtk"
    Patch     : "/home/pasou/Desktop/DL_solvers/DLpisoFoam/train_SM/generate_data_3d/simulation_data_test/0/VTK/geometry_y_top/geometry_y_top_14.2848.vtk"
    Patch     : "/home/pasou/Desktop/DL_solvers/DLpisoFoam/train_SM/generate_data_3d/simulation_data_test/0/VTK/geometry_outlet/geometry_outlet_14.2848.vtk"
    Patch     : "/home/pasou/Desktop/DL_solvers/DLpisoFoam/train_SM/generate_data_3d/simulation_data_test/0/VTK/geometry_obstacle/geometry_obstacle_14.2848.vtk"
Time: 15.0012
    volScalarFields            : Cy delta_p Cz p Cx
    volVectorFields            : delta_U U_non_cons
    pointScalarFields : switched off ("-noPointValues" (at your option)
    pointVectorFields : switched off ("-noPointValues" (at your option)

    Internal  : "/home/pasou/Desktop/DL_solvers/DLpisoFoam/train_SM/generate_data_3d/simulation_data_test/0/VTK/0_15.0012.vtk"
    Patch     : "/home/pasou/Desktop/DL_solvers/DLpisoFoam/train_SM/generate_data_3d/simulation_data_test/0/VTK/geometry_z_top/geometry_z_top_15.0012.vtk"
    Patch     : "/home/pasou/Desktop/DL_solvers/DLpisoFoam/train_SM/generate_data_3d/simulation_data_test/0/VTK/geometry_z_bot/geometry_z_bot_15.0012.vtk"
    Patch     : "/home/pasou/Desktop/DL_solvers/DLpisoFoam/train_SM/generate_data_3d/simulation_data_test/0/VTK/geometry_y_bot/geometry_y_bot_15.0012.vtk"
    Patch     : "/home/pasou/Desktop/DL_solvers/DLpisoFoam/train_SM/generate_data_3d/simulation_data_test/0/VTK/geometry_inlet/geometry_inlet_15.0012.vtk"
    Patch     : "/home/pasou/Desktop/DL_solvers/DLpisoFoam/train_SM/generate_data_3d/simulation_data_test/0/VTK/geometry_y_top/geometry_y_top_15.0012.vtk"
    Patch     : "/home/pasou/Desktop/DL_solvers/DLpisoFoam/train_SM/generate_data_3d/simulation_data_test/0/VTK/geometry_outlet/geometry_outlet_15.0012.vtk"
    Patch     : "/home/pasou/Desktop/DL_solvers/DLpisoFoam/train_SM/generate_data_3d/simulation_data_test/0/VTK/geometry_obstacle/geometry_obstacle_15.0012.vtk"
Time: 15.714
    volScalarFields            : Cy delta_p Cz p Cx
    volVectorFields            : delta_U U_non_cons
    pointScalarFields : switched off ("-noPointValues" (at your option)
    pointVectorFields : switched off ("-noPointValues" (at your option)

    Internal  : "/home/pasou/Desktop/DL_solvers/DLpisoFoam/train_SM/generate_data_3d/simulation_data_test/0/VTK/0_15.714.vtk"
    Patch     : "/home/pasou/Desktop/DL_solvers/DLpisoFoam/train_SM/generate_data_3d/simulation_data_test/0/VTK/geometry_z_top/geometry_z_top_15.714.vtk"
    Patch     : "/home/pasou/Desktop/DL_solvers/DLpisoFoam/train_SM/generate_data_3d/simulation_data_test/0/VTK/geometry_z_bot/geometry_z_bot_15.714.vtk"
    Patch     : "/home/pasou/Desktop/DL_solvers/DLpisoFoam/train_SM/generate_data_3d/simulation_data_test/0/VTK/geometry_y_bot/geometry_y_bot_15.714.vtk"
    Patch     : "/home/pasou/Desktop/DL_solvers/DLpisoFoam/train_SM/generate_data_3d/simulation_data_test/0/VTK/geometry_inlet/geometry_inlet_15.714.vtk"
    Patch     : "/home/pasou/Desktop/DL_solvers/DLpisoFoam/train_SM/generate_data_3d/simulation_data_test/0/VTK/geometry_y_top/geometry_y_top_15.714.vtk"
    Patch     : "/home/pasou/Desktop/DL_solvers/DLpisoFoam/train_SM/generate_data_3d/simulation_data_test/0/VTK/geometry_outlet/geometry_outlet_15.714.vtk"
    Patch     : "/home/pasou/Desktop/DL_solvers/DLpisoFoam/train_SM/generate_data_3d/simulation_data_test/0/VTK/geometry_obstacle/geometry_obstacle_15.714.vtk"
Time: 16.4304
    volScalarFields            : Cy delta_p Cz p Cx
    volVectorFields            : delta_U U_non_cons
    pointScalarFields : switched off ("-noPointValues" (at your option)
    pointVectorFields : switched off ("-noPointValues" (at your option)

    Internal  : "/home/pasou/Desktop/DL_solvers/DLpisoFoam/train_SM/generate_data_3d/simulation_data_test/0/VTK/0_16.4304.vtk"
    Patch     : "/home/pasou/Desktop/DL_solvers/DLpisoFoam/train_SM/generate_data_3d/simulation_data_test/0/VTK/geometry_z_top/geometry_z_top_16.4304.vtk"
    Patch     : "/home/pasou/Desktop/DL_solvers/DLpisoFoam/train_SM/generate_data_3d/simulation_data_test/0/VTK/geometry_z_bot/geometry_z_bot_16.4304.vtk"
    Patch     : "/home/pasou/Desktop/DL_solvers/DLpisoFoam/train_SM/generate_data_3d/simulation_data_test/0/VTK/geometry_y_bot/geometry_y_bot_16.4304.vtk"
    Patch     : "/home/pasou/Desktop/DL_solvers/DLpisoFoam/train_SM/generate_data_3d/simulation_data_test/0/VTK/geometry_inlet/geometry_inlet_16.4304.vtk"
    Patch     : "/home/pasou/Desktop/DL_solvers/DLpisoFoam/train_SM/generate_data_3d/simulation_data_test/0/VTK/geometry_y_top/geometry_y_top_16.4304.vtk"
    Patch     : "/home/pasou/Desktop/DL_solvers/DLpisoFoam/train_SM/generate_data_3d/simulation_data_test/0/VTK/geometry_outlet/geometry_outlet_16.4304.vtk"
    Patch     : "/home/pasou/Desktop/DL_solvers/DLpisoFoam/train_SM/generate_data_3d/simulation_data_test/0/VTK/geometry_obstacle/geometry_obstacle_16.4304.vtk"
Time: 17.1432
    volScalarFields            : Cy delta_p Cz p Cx
    volVectorFields            : delta_U U_non_cons
    pointScalarFields : switched off ("-noPointValues" (at your option)
    pointVectorFields : switched off ("-noPointValues" (at your option)

    Internal  : "/home/pasou/Desktop/DL_solvers/DLpisoFoam/train_SM/generate_data_3d/simulation_data_test/0/VTK/0_17.1432.vtk"
    Patch     : "/home/pasou/Desktop/DL_solvers/DLpisoFoam/train_SM/generate_data_3d/simulation_data_test/0/VTK/geometry_z_top/geometry_z_top_17.1432.vtk"
    Patch     : "/home/pasou/Desktop/DL_solvers/DLpisoFoam/train_SM/generate_data_3d/simulation_data_test/0/VTK/geometry_z_bot/geometry_z_bot_17.1432.vtk"
    Patch     : "/home/pasou/Desktop/DL_solvers/DLpisoFoam/train_SM/generate_data_3d/simulation_data_test/0/VTK/geometry_y_bot/geometry_y_bot_17.1432.vtk"
    Patch     : "/home/pasou/Desktop/DL_solvers/DLpisoFoam/train_SM/generate_data_3d/simulation_data_test/0/VTK/geometry_inlet/geometry_inlet_17.1432.vtk"
    Patch     : "/home/pasou/Desktop/DL_solvers/DLpisoFoam/train_SM/generate_data_3d/simulation_data_test/0/VTK/geometry_y_top/geometry_y_top_17.1432.vtk"
    Patch     : "/home/pasou/Desktop/DL_solvers/DLpisoFoam/train_SM/generate_data_3d/simulation_data_test/0/VTK/geometry_outlet/geometry_outlet_17.1432.vtk"
    Patch     : "/home/pasou/Desktop/DL_solvers/DLpisoFoam/train_SM/generate_data_3d/simulation_data_test/0/VTK/geometry_obstacle/geometry_obstacle_17.1432.vtk"
Time: 17.856
    volScalarFields            : Cy delta_p Cz p Cx
    volVectorFields            : delta_U U_non_cons
    pointScalarFields : switched off ("-noPointValues" (at your option)
    pointVectorFields : switched off ("-noPointValues" (at your option)

    Internal  : "/home/pasou/Desktop/DL_solvers/DLpisoFoam/train_SM/generate_data_3d/simulation_data_test/0/VTK/0_17.856.vtk"
    Patch     : "/home/pasou/Desktop/DL_solvers/DLpisoFoam/train_SM/generate_data_3d/simulation_data_test/0/VTK/geometry_z_top/geometry_z_top_17.856.vtk"
    Patch     : "/home/pasou/Desktop/DL_solvers/DLpisoFoam/train_SM/generate_data_3d/simulation_data_test/0/VTK/geometry_z_bot/geometry_z_bot_17.856.vtk"
    Patch     : "/home/pasou/Desktop/DL_solvers/DLpisoFoam/train_SM/generate_data_3d/simulation_data_test/0/VTK/geometry_y_bot/geometry_y_bot_17.856.vtk"
    Patch     : "/home/pasou/Desktop/DL_solvers/DLpisoFoam/train_SM/generate_data_3d/simulation_data_test/0/VTK/geometry_inlet/geometry_inlet_17.856.vtk"
    Patch     : "/home/pasou/Desktop/DL_solvers/DLpisoFoam/train_SM/generate_data_3d/simulation_data_test/0/VTK/geometry_y_top/geometry_y_top_17.856.vtk"
    Patch     : "/home/pasou/Desktop/DL_solvers/DLpisoFoam/train_SM/generate_data_3d/simulation_data_test/0/VTK/geometry_outlet/geometry_outlet_17.856.vtk"
    Patch     : "/home/pasou/Desktop/DL_solvers/DLpisoFoam/train_SM/generate_data_3d/simulation_data_test/0/VTK/geometry_obstacle/geometry_obstacle_17.856.vtk"
End

